data_test
_audit_creation_method	'Created with CONVERT.DLL (www.crystalimpact.com)'
_audit_creation_date	2012-05-29
_audit_update_record	2012-05-29
_chemical_formula_sum	'Li28 P4 Ge2 S24'
_chemical_formula_weight	1233.047
_cell_length_a	 8.69407(18)
_cell_length_b	 8.69407(18)
_cell_length_c	12.5994(4)
_cell_angle_alpha	90.000
_cell_angle_beta	90.000
_cell_angle_gamma	90.000
_cell_volume	952.349(6)
_symmetry_int_tables_number	137
_symmetry_space_group_name_H-M	'P 42/n m c'
_symmetry_space_group_name_Hall	'P_4n_2n_-1n'

loop_
_symmetry_equiv_pos_site_id
_symmetry_equiv_pos_as_xyz
1 x,y,z
2 1/2-x,1/2-y,1/2-z
3 1/2-y,1/2+x,1/2+z
4 -x,-y,z
5 1/2+y,1/2-x,1/2+z
6 y,-x,-z
7 -y,x,-z
8 1/2+x,1/2-y,1/2-z
9 1/2-x,1/2+y,1/2-z
10 y,x,-z
11 -y,-x,-z
12 1/2+x,1/2+y,1/2-z
13 -x,y,z
14 x,-y,z
15 1/2-y,1/2-x,1/2+z
16 1/2+y,1/2+x,1/2+z

loop_
_atom_type_symbol
_atom_type_oxidation_number
Li-1  +1
Li-2  +1
Li-3  +1
Ge-1  +4
P-1   +5 
P-2   +5
S-1   -2
S-2   -2
S-3   -2

loop_
_atom_site_type_symbol
_atom_site_label
_atom_site_occupancy
_atom_site_fract_x
_atom_site_fract_y
_atom_site_fract_z
Li Li-1 0.691(5) 0.2563(5) 0.2718(3) 0.1832(3) 
Li Li-2 1.000(8) 0 0.5 0.9446(2) 
Li Li-3 0.643(5) 0.2463(3) 0.2463(3) 0 
Ge Ge-1 0.515(5) 0 0.5 0.6907(6) 
P P-1 0.485(5) 0 0.5 0.6907(6) 
P P-2 1 0 0 0.5
S S-1 1 0 0.1843(15) 0.4103(11) 
S S-2 1 0 0.2991(18) 0.0950(11) 
S S-3 1 0 0.6990(15) 0.7914(12) 

